*Heading
 fatigue-tree2 paper #2 Appendix A: ABAQUS validation case val_rd50_e000
 r_d/R = 0.50, e_norm = 0.00
 Generated by 08_abaqus_validation_setup.py
**
*Part, name=SECTION
*Node
 1, -0.1125000000, -1.0000000000
 2, -0.1000000000, -1.0000000000
 3, -0.0875000000, -1.0000000000
 4, -0.0750000000, -1.0000000000
 5, -0.0625000000, -1.0000000000
 6, -0.0500000000, -1.0000000000
 7, -0.0375000000, -1.0000000000
 8, -0.0250000000, -1.0000000000
 9, -0.0125000000, -1.0000000000
 10, 0.0000000000, -1.0000000000
 11, 0.0125000000, -1.0000000000
 12, 0.0250000000, -1.0000000000
 13, 0.0375000000, -1.0000000000
 14, 0.0500000000, -1.0000000000
 15, 0.0625000000, -1.0000000000
 16, 0.0750000000, -1.0000000000
 17, 0.0875000000, -1.0000000000
 18, 0.1000000000, -1.0000000000
 19, 0.1125000000, -1.0000000000
 20, -0.1875000000, -0.9875000000
** ... 15544 like lines cut
*Element, type=CPS4R, elset=ALL
 1, 6996, 6997, 7081, 7080
 2, 7080, 7081, 7165, 7164
 3, 7164, 7165, 7249, 7248
 4, 7248, 7249, 7333, 7332
 5, 7332, 7333, 7415, 7414
 6, 7414, 7415, 7497, 7496
 7, 7496, 7497, 7579, 7578
 8, 7578, 7579, 7661, 7660
 9, 7660, 7661, 7743, 7742
 10, 7742, 7743, 7825, 7824
 11, 7824, 7825, 7907, 7906
 12, 7906, 7907, 7989, 7988
 13, 7988, 7989, 8071, 8070
 14, 8070, 8071, 8153, 8152
 15, 8152, 8153, 8235, 8234
 16, 8234, 8235, 8319, 8318
 17, 8318, 8319, 8403, 8402
 18, 8402, 8403, 8487, 8486
 19, 6490, 6491, 6577, 6576
 20, 6576, 6577, 6663, 6662
** ... 15064 like lines cut
*Solid Section, elset=ALL, material=WOOD
1.0000
*End Part
**
*Material, name=WOOD
*Density
1.0000
*Elastic
9.5e9, 0.3
**
*Assembly, name=ASSEMBLY
*Instance, name=SEC-1, part=SECTION
*End Instance
*End Assembly
**
*Step, name=trivial, perturbation=NO
*Static
1.0, 1.0, 1e-5, 1.0
*Output, field
*Element Output, elset=SEC-1.ALL
EVOL, IVOL, COORD
*End Step
