*Heading
 fatigue-tree2 paper #2 Appendix A: ABAQUS validation case val_rd70_e095
 r_d/R = 0.70, e_norm = 0.95
 Generated by 08_abaqus_validation_setup.py
**
*Part, name=SECTION
*Node
 1, -0.1125000000, -1.0000000000
 2, -0.1000000000, -1.0000000000
 3, -0.0875000000, -1.0000000000
 4, -0.0750000000, -1.0000000000
 5, -0.0625000000, -1.0000000000
 6, -0.0500000000, -1.0000000000
 7, -0.0375000000, -1.0000000000
 8, -0.0250000000, -1.0000000000
 9, -0.0125000000, -1.0000000000
 10, 0.0000000000, -1.0000000000
 11, 0.0125000000, -1.0000000000
 12, 0.0250000000, -1.0000000000
 13, 0.0375000000, -1.0000000000
 14, 0.0500000000, -1.0000000000
 15, 0.0625000000, -1.0000000000
 16, 0.0750000000, -1.0000000000
 17, 0.0875000000, -1.0000000000
 18, 0.1000000000, -1.0000000000
 19, 0.1125000000, -1.0000000000
 20, -0.1875000000, -0.9875000000
** ... 10778 like lines cut
*Element, type=CPS4R, elset=ALL
 1, 4920, 4921, 4973, 4972
 2, 4972, 4973, 5024, 5023
 3, 5023, 5024, 5075, 5074
 4, 5074, 5075, 5126, 5125
 5, 5125, 5126, 5176, 5175
 6, 5175, 5176, 5226, 5225
 7, 5225, 5226, 5276, 5275
 8, 5275, 5276, 5326, 5325
 9, 5325, 5326, 5376, 5375
 10, 5375, 5376, 5426, 5425
 11, 5425, 5426, 5476, 5475
 12, 5475, 5476, 5526, 5525
 13, 5525, 5526, 5576, 5575
 14, 5575, 5576, 5626, 5625
 15, 5625, 5626, 5676, 5675
 16, 5675, 5676, 5727, 5726
 17, 5726, 5727, 5778, 5777
 18, 5777, 5778, 5829, 5828
 19, 4614, 4615, 4667, 4666
 20, 4666, 4667, 4719, 4718
** ... 10234 like lines cut
*Solid Section, elset=ALL, material=WOOD
1.0000
*End Part
**
*Material, name=WOOD
*Density
1.0000
*Elastic
9.5e9, 0.3
**
*Assembly, name=ASSEMBLY
*Instance, name=SEC-1, part=SECTION
*End Instance
*End Assembly
**
*Step, name=trivial, perturbation=NO
*Static
1.0, 1.0, 1e-5, 1.0
*Output, field
*Element Output, elset=SEC-1.ALL
EVOL, IVOL, COORD
*End Step
