*Heading
 Tree Model: H=6.0m, DBH=20cm, Multi-axial Kaimal Wind
 F_X_ref=2632.60 N  F_Y_ref=922.15 N
 Generated by generate_inp_cases.py
**
** ============================================================
** NODES
** ============================================================
*Node
 1,  0., 0., 0.000000
 2,  0., 0., 0.600000
 3,  0., 0., 1.200000
 4,  0., 0., 1.800000
 5,  0., 0., 2.400000
 6,  0., 0., 3.000000
 7,  0., 0., 3.600000
 8,  0., 0., 4.200000
 9,  0., 0., 4.800000
 10,  0., 0., 5.400000
 11,  0., 0., 6.000000
**
** ============================================================
** ELEMENTS - TRUNK (B31 beam, Z-axis)
** ============================================================
*Element, type=B31, elset=TRUNK
 1, 1, 2
 2, 2, 3
 3, 3, 4
 4, 4, 5
 5, 5, 6
 6, 6, 7
 7, 7, 8
 8, 8, 9
 9, 9, 10
 10, 10, 11
**
*Element, type=MASS, elset=CROWN_MASS_ELEM
 101, 11
**
** ============================================================
** ELEMENT SETS (1 per element for tapered sections)
** ============================================================
*Elset, elset=E1
 1,
*Elset, elset=E2
 2,
*Elset, elset=E3
 3,
*Elset, elset=E4
 4,
*Elset, elset=E5
 5,
*Elset, elset=E6
 6,
*Elset, elset=E7
 7,
*Elset, elset=E8
 8,
*Elset, elset=E9
 9,
*Elset, elset=E10
 10,
**
** ============================================================
** NODE SETS
** ============================================================
*Nset, nset=BASE
 1,
*Nset, nset=TIP
 11,
**
** ============================================================
** BEAM SECTIONS (tapered, CIRC, n1=(1,0,0))
** ============================================================
*Beam Section, elset=E1, material=WOOD, section=CIRC
 0.115500,
 1.0, 0.0, 0.0
*Beam Section, elset=E2, material=WOOD, section=CIRC
 0.106500,
 1.0, 0.0, 0.0
*Beam Section, elset=E3, material=WOOD, section=CIRC
 0.097500,
 1.0, 0.0, 0.0
*Beam Section, elset=E4, material=WOOD, section=CIRC
 0.088500,
 1.0, 0.0, 0.0
*Beam Section, elset=E5, material=WOOD, section=CIRC
 0.079500,
 1.0, 0.0, 0.0
*Beam Section, elset=E6, material=WOOD, section=CIRC
 0.070500,
 1.0, 0.0, 0.0
*Beam Section, elset=E7, material=WOOD, section=CIRC
 0.061500,
 1.0, 0.0, 0.0
*Beam Section, elset=E8, material=WOOD, section=CIRC
 0.052500,
 1.0, 0.0, 0.0
*Beam Section, elset=E9, material=WOOD, section=CIRC
 0.043500,
 1.0, 0.0, 0.0
*Beam Section, elset=E10, material=WOOD, section=CIRC
 0.034500,
 1.0, 0.0, 0.0
**
** ============================================================
** MATERIAL
** ============================================================
*Material, name=WOOD
*Elastic
 4.7600e+09, 0.35
*Density
 780.0,
** Rayleigh damping: zeta=2% at f1 range (Sellier & Fourcaud 2009)
** alpha=0.0754, beta=0.00472  -> zeta~2% at 0.3~1.0 Hz
*Damping, alpha=0.0754, beta=0.00472
**
** ============================================================
** CROWN MASS
** ============================================================
*Mass, elset=CROWN_MASS_ELEM
 112.50,
**
** ============================================================
** BOUNDARY CONDITIONS (base: fully fixed)
** ============================================================
*Boundary
 1, 1, 6
**
** ============================================================
** AMPLITUDE - KAIMAL X (mean + turbulence, always >= 0)
** F_X_ref = 2632.60 N  (Cload ???)
** A_crown = 6.75 m2, U_bar = 20.0 m/s
** ============================================================
*Amplitude, name=KAIMAL_X, definition=TABULAR
0.0000, +0.327251, 0.0500, +0.299520, 0.1000, +0.309686, 0.1500, +0.257816
0.2000, +0.327843, 0.2500, +0.299794, 0.3000, +0.294444, 0.3500, +0.306917
0.4000, +0.289303, 0.4500, +0.291955, 0.5000, +0.250681, 0.5500, +0.331608
0.6000, +0.227211, 0.6500, +0.195791, 0.7000, +0.232405, 0.7500, +0.272603
0.8000, +0.231239, 0.8500, +0.196697, 0.9000, +0.160192, 0.9500, +0.157642
1.0000, +0.183369, 1.0500, +0.204810, 1.1000, +0.191958, 1.1500, +0.212640
1.2000, +0.175894, 1.2500, +0.209916, 1.3000, +0.238833, 1.3500, +0.239882
1.4000, +0.277173, 1.4500, +0.298625, 1.5000, +0.280372, 1.5500, +0.260702
1.6000, +0.287608, 1.6500, +0.289666, 1.7000, +0.295200, 1.7500, +0.332350
1.8000, +0.380254, 1.8500, +0.304352, 1.9000, +0.309272, 1.9500, +0.313351
2.0000, +0.285663, 2.0500, +0.318130, 2.1000, +0.440340, 2.1500, +0.372313
2.2000, +0.400756, 2.2500, +0.450747, 2.3000, +0.362085, 2.3500, +0.261781
2.4000, +0.363189, 2.4500, +0.375298, 2.5000, +0.409529, 2.5500, +0.399041
2.6000, +0.355199, 2.6500, +0.349425, 2.7000, +0.318808, 2.7500, +0.340235
2.8000, +0.462589, 2.8500, +0.509149, 2.9000, +0.428751, 2.9500, +0.520708
3.0000, +0.576657, 3.0500, +0.678250, 3.1000, +0.593009, 3.1500, +0.561844
3.2000, +0.492928, 3.2500, +0.564925, 3.3000, +0.458747, 3.3500, +0.404063
3.4000, +0.333506, 3.4500, +0.363858, 3.5000, +0.321692, 3.5500, +0.298165
3.6000, +0.271965, 3.6500, +0.369823, 3.7000, +0.456976, 3.7500, +0.498383
3.8000, +0.471899, 3.8500, +0.480811, 3.9000, +0.465476, 3.9500, +0.443700
** ... 2980 like lines cut
**
** ============================================================
** AMPLITUDE - KAIMAL Y (lateral turbulence only, bidirectional)
** F_Y_ref = 922.15 N  (Cload ???)
** sigma_v = 3.00 m/s  (= 0.75 x sigma_u)
** ============================================================
*Amplitude, name=KAIMAL_Y, definition=TABULAR
0.0000, -0.167781, 0.0500, -0.074916, 0.1000, -0.110886, 0.1500, -0.033620
0.2000, +0.149022, 0.2500, +0.132116, 0.3000, +0.194154, 0.3500, +0.162161
0.4000, +0.126248, 0.4500, +0.037897, 0.5000, -0.057326, 0.5500, -0.244999
0.6000, -0.147462, 0.6500, -0.117934, 0.7000, -0.168970, 0.7500, -0.259688
0.8000, -0.233285, 0.8500, -0.393095, 0.9000, -0.297222, 0.9500, -0.405647
1.0000, -0.334014, 1.0500, -0.313959, 1.1000, -0.215212, 1.1500, -0.162935
1.2000, -0.207826, 1.2500, -0.129507, 1.3000, -0.065108, 1.3500, -0.037937
1.4000, +0.025084, 1.4500, +0.044117, 1.5000, -0.040182, 1.5500, -0.093730
1.6000, -0.051841, 1.6500, -0.026646, 1.7000, +0.140370, 1.7500, +0.131270
1.8000, +0.175152, 1.8500, +0.112574, 1.9000, +0.133477, 1.9500, +0.117526
2.0000, +0.162661, 2.0500, +0.180508, 2.1000, +0.109203, 2.1500, +0.060827
2.2000, +0.142112, 2.2500, +0.204224, 2.3000, +0.104111, 2.3500, +0.089283
2.4000, +0.240904, 2.4500, +0.257197, 2.5000, +0.329567, 2.5500, +0.289542
2.6000, +0.304906, 2.6500, +0.251208, 2.7000, +0.270772, 2.7500, +0.409039
2.8000, +0.193612, 2.8500, +0.249132, 2.9000, +0.374082, 2.9500, +0.336042
3.0000, +0.448914, 3.0500, +0.409688, 3.1000, +0.347480, 3.1500, +0.315719
3.2000, +0.398985, 3.2500, +0.485737, 3.3000, +0.506097, 3.3500, +0.587918
3.4000, +0.495524, 3.4500, +0.500519, 3.5000, +0.325212, 3.5500, +0.207379
3.6000, +0.211863, 3.6500, +0.404961, 3.7000, +0.454733, 3.7500, +0.456257
3.8000, +0.354852, 3.8500, +0.493563, 3.9000, +0.501566, 3.9500, +0.571985
** ... 2980 like lines cut
**
** ============================================================
** STEP 1: MODAL ANALYSIS (?????)
** ============================================================
*Step, name=FREQUENCY, perturbation
*Frequency, eigensolver=Lanczos, normalization=displacement
 5,
*Output, field
*Node Output
 U,
*End Step
**
** ============================================================
** STEP 2: WIND DYNAMIC ANALYSIS
** ============================================================
*Step, name=WIND_DYNAMIC, nlgeom=NO, inc=15000
*Dynamic, direct
 0.05, 600.0
**
** X-direction: mean wind + turbulence
*Cload, amplitude=KAIMAL_X
 11, 1, 2632.6041
**
** Y-direction: lateral turbulence only
*Cload, amplitude=KAIMAL_Y
 11, 2, 922.1529
**
*Output, field, frequency=100
*Node Output
 U, V, A
*Element Output, elset=TRUNK
 SF, SM
**
*Output, history, frequency=1
** Base element: bending moment SM1, SM2
*Element Output, elset=E1
 SF1, SF2, SF3, SM1, SM2
** Tip displacement
*Node Output, nset=TIP
 U1, U2
** Base reaction force
*Node Output, nset=BASE
 RF1, RF2
*End Step
